Version 4
SHEET 1 880 680
WIRE 336 80 336 48
WIRE 240 144 176 144
WIRE 496 176 464 176
WIRE 240 208 176 208
WIRE 336 304 336 272
WIRE 0 0 0 0
FLAG -64 16 Vdd
IOPIN -64 16 In
FLAG -64 176 A
IOPIN -64 176 In
FLAG 32 16 B
IOPIN 32 16 In
FLAG 176 144 A
IOPIN 176 144 In
FLAG 176 208 B
IOPIN 176 208 In
FLAG -64 96 0
FLAG -64 256 0
FLAG 32 96 0
FLAG 336 48 Vdd
IOPIN 336 48 In
FLAG 336 304 0
FLAG 496 176 Y
IOPIN 496 176 Out
SYMBOL voltage -64 0 R0
WINDOW 123 0 0 Left 0
WINDOW 39 0 0 Left 0
SYMATTR InstName V1
SYMATTR Value 2
SYMBOL voltage -64 160 R0
WINDOW 3 -25 133 Left 2
WINDOW 123 0 0 Left 0
WINDOW 39 0 0 Left 0
SYMATTR Value PULSE(0 2 2 0.001 0.001 2 4)
SYMATTR InstName V2
SYMBOL voltage 32 0 R0
WINDOW 3 -69 -37 Left 2
WINDOW 123 0 0 Left 0
WINDOW 39 0 0 Left 0
SYMATTR Value PULSE(0 2 1 0.001 0.001 1 2)
SYMATTR InstName V3
SYMBOL NAND_SYM 352 176 R0
SYMATTR InstName X1
TEXT 424 -32 Left 2 !.tran 4
