Version 4
SHEET 1 880 680
WIRE 304 80 304 48
WIRE 224 112 176 112
WIRE 384 128 352 128
WIRE 224 144 176 144
WIRE -352 176 -352 144
WIRE -208 176 -208 144
WIRE -16 176 -16 144
WIRE 304 208 304 176
WIRE -352 288 -352 256
WIRE -16 288 -16 256
WIRE -208 304 -208 256
FLAG -352 144 VDD
IOPIN -352 144 In
FLAG -16 144 B
IOPIN -16 144 In
FLAG -208 144 A
IOPIN -208 144 In
FLAG 304 48 VDD
IOPIN 304 48 In
FLAG 176 112 A
IOPIN 176 112 In
FLAG 176 144 B
IOPIN 176 144 In
FLAG 304 208 0
FLAG -352 288 0
FLAG -16 288 0
FLAG -208 304 0
FLAG 384 128 Y
IOPIN 384 128 Out
SYMBOL voltage -352 160 R0
WINDOW 123 0 0 Left 0
WINDOW 39 0 0 Left 0
SYMATTR InstName V1
SYMATTR Value 5
SYMBOL voltage -16 160 R0
WINDOW 3 -184 180 Left 2
WINDOW 123 0 0 Left 0
WINDOW 39 0 0 Left 0
SYMATTR Value PULSE(0 5 1 0.001 0.001 1 2)
SYMATTR InstName V2
SYMBOL voltage -208 160 R0
WINDOW 3 -100 -100 Left 2
WINDOW 123 0 0 Left 0
WINDOW 39 0 0 Left 0
SYMATTR Value PULSE(0 5 2 0.001 0.001 2 4)
SYMATTR InstName V3
SYMBOL OR 240 128 R0
SYMATTR InstName X1
TEXT 144 264 Left 2 !.tran 4
