Version 4
SHEET 1 880 680
WIRE 336 144 336 128
WIRE 256 208 176 208
WIRE 480 240 448 240
WIRE 256 272 176 272
WIRE 336 368 336 336
FLAG 176 208 A
IOPIN 176 208 In
FLAG 176 272 B
IOPIN 176 272 In
FLAG -112 208 Vdd
IOPIN -112 208 In
FLAG 16 96 A
IOPIN 16 96 In
FLAG 16 288 B
IOPIN 16 288 In
FLAG 16 176 0
FLAG -112 288 0
FLAG 16 368 0
FLAG 336 368 0
FLAG 336 128 Vdd
IOPIN 336 128 In
FLAG 480 240 Y
IOPIN 480 240 Out
SYMBOL voltage 16 80 R0
WINDOW 3 -122 -40 Left 2
WINDOW 123 0 0 Left 0
WINDOW 39 0 0 Left 0
SYMATTR Value PULSE(0 2 2 0.001 0.001 2 4)
SYMATTR InstName V1
SYMBOL voltage 16 272 R0
WINDOW 3 -122 126 Left 2
WINDOW 123 0 0 Left 0
WINDOW 39 0 0 Left 0
SYMATTR Value PULSE(0 2 1 0.001 0.001 1 2)
SYMATTR InstName V2
SYMBOL voltage -112 192 R0
WINDOW 123 0 0 Left 0
WINDOW 39 0 0 Left 0
SYMATTR InstName V3
SYMATTR Value 2
SYMBOL NOR_SYM 352 240 R0
SYMATTR InstName X1
TEXT 416 368 Left 2 !.tran 4
